power-flow-agent/results/ieee14/2026-09-14/gpt-4o-mini/react_nogate/traces/03_case14-ambiguous-011-s0.transcript.txt
==============================================================================
TRANSCRIPT  react_nogate  |  openrouter:openai/gpt-4o-mini  |  case14  |  case14-ambiguous-011-s0  run 0
==============================================================================
date: 2026-09-14   seed: 0   difficulty: ambiguous   tool variant: None

[system]   (hash 7da5e2a37ec4, from methods/react_nogate/method.json prompt_files)
You are a power system power-flow analysis assistant. You help the user complete power system analysis tasks from natural-language requests.

## What you can do
You complete tasks by calling tool functions:
1. Load an IEEE standard test system (14, 30, 57, 118, 300 buses)
2. Run AC power flow
3. Modify the load at a bus and re-solve
4. Disconnect or reconnect a line and re-solve
5. Query the network status
6. Run an N-1 contingency analysis (disconnect branches one at a time and rank the worst cases)
7. Generate remedial-action suggestions (what-if load shedding or voltage adjustment) to reduce violation risk

## Key rules
- Never fabricate any numerical result. Every voltage, power, loss, or loading value must come from a tool return value.
- If a tool reports an error or a non-converged power flow, say so explicitly and do not report numbers for that state.
- If the request is ambiguous, state the interpretation you are using.
- Bus and line identifiers in the request are MATPOWER 1-based ids; pass them to the tools as given, unless the request itself states a different indexing convention for that identifier (e.g. "(0-based)"), in which case convert it to the MATPOWER 1-based id before calling any tool.
- After a network modification, re-solve before reporting any value.
- Always reply in English.

## Reply format
After each analysis, reply in this structure:
1. One-sentence summary
2. Key numbers (total load, total generation, total losses, voltage range) taken from the tool outputs
3. Violations, if any
4. Suggested next step

[user]
Load case14 and set the active load at bus 6 to 14,700 kw.

--- round 1 ---
[assistant]   (757 in / 16 out tokens, 0.9 s)
(no text)
tool_call  load_case(case_name="case14")
[tool load_case]   (gate: not applied)
{"case_name": "case14", "n_buses": 14, "n_generators": 5, "n_lines": 20, "n_loads": 11, "total_load_mw": 263.13580543670497, "total_gen_capacity_mw": 772.4000000000001}

--- round 2 ---
[assistant]   (851 in / 23 out tokens, 0.9 s)
(no text)
tool_call  modify_load(bus_id=6, p_mw=14.7)
[tool modify_load]   (gate: pass)
{"case_name": "case14", "converged": true, "bus_voltages": [{"bus_id": 1, "vm_pu": 1.06, "va_deg": 0.0, "is_violation": true, "violation_type": "overvoltage"}, {"bus_id": 2, "vm_pu": 1.0449999999999997, "va_deg": -5.236323374534585, "is_violation": false, "violation_type": null}, {"bus_id": 3, "vm_pu": 1.01, "va_deg": -13.429126222339598, "is_violation": false, "violation_type": null}, {"bus_id": 4, "vm_pu": 1.0172100918232156, "va_deg": -10.776446646801205, "is_violation": false, "violation_type": null}, {"bus_id": 5, "vm_pu": 1.01883255795546, "va_deg": -9.181680263071527, "is_violation": false, "violation_type": null}, {"bus_id": 6, "vm_pu": 1.0700000000000003, "va_deg": -15.041552855129648, "is_violation": true, "violation_type": "overvoltage"}, {"bus_id": 7, "vm_pu": 1.0619668053396405, "va_deg": -13.872102258703361, "is_violation": true, "violation_type": "overvoltage"}, {"bus_id": 8, "vm_pu": 1.09, "va_deg": -13.872102258703361, "is_violation": true, "violation_type": "overvoltage"}, {"bus_id": 9, "vm_pu": 1.0571782523136979, "va_deg": -15.473717019212613, "is_violation": true, "violation_type": "overvoltage"}, {"bus_id": 10, "vm_pu": 1.0525625544598776, "va_deg": -15.663898427395994, "is_violation": true, "violation_type": "overvoltage"}, {"bus_id": 11, "vm_pu": 1.0576606781970888, "va_deg": -15.488129212827102, "is_violation": true, "violation_type": "overvoltage"}, {"bus_id": 12, "vm_pu": 1.0542732040088876, "va_deg": -15.92991860015958, "is_violation": true, "violation_type": "overvoltage"}, {"bus_id": 13, "vm_pu": 1.0492951572967393, "va_deg": -15.997303412484408, "is_violation": false, "violation_type": null}, {"bus_id": 14, "vm_pu": 1.0352697919793838, "va_deg": -16.72939218439584, "is_violation": false, "violation_type": null}], "line_flows": [{"line_id": 0, "from_bus": 1, "to_bus": 2, "p_from_mw": 164.5587574544371, "q_from_mvar": -22.18004072485033, "loading_percent": 1.582302241313052, "is_violation": false}, {"line_id": 1, "from_bus": 1, "to_bus": 5, "p_from_mw": 78.87559149462054, "q_from_mvar": 3.8976209976158693, "loading_percent": 0.7528029263507529, "is_violation": false}, {"line_id": 2, "from_bus": 2, "to_bus": 3, "p_from_mw": 77.29627181956843, "q_from_mvar": 3.177620959519057, "loading_percent": 0.7478311816615748, "is_violation": false}, {"line_id": 3, "from_bus": 2, "to_bus": 4, "p_from_mw": 58.234014980173754, "q_from_mvar": -1.7622705366215934, "loading_percent": 0.563149907538146, "is_violation": false}, {"line_id": 4, "from_bus": 2, "to_bus": 5, "p_from_mw": 43.129297831046244, "q_from_mvar": 1.1623276923744634, "loading_percent": 0.41834225647858503, "is_violation": false}, {"line_id": 5, "from_bus": 3, "to_bus": 4, "p_from_mw": -25.329176377338598, "q_from_mvar": 5.657017692934295, "loading_percent": 0.26243078584475615, "is_violation": false}, {"line_id": 6, "from_bus": 4, "to_bus": 5, "p_from_mw": -63.092205682515946, "q_from_mvar": 17.035966391778352, "loading_percent": 0.648950144345743, "is_violation": false}, {"line_id": 7, "from_bus": 6, "to_bus": 11, "p_from_mw": 6.19918426066749, "q_from_mvar": 3.695054917596236, "loading_percent": 0.06812873772925016, "is_violation": false}, {"line_id": 8, "from_bus": 6, "to_bus": 12, "p_from_mw": 8.143285928130458, "q_from_mvar": 2.718561340455553, "loading_percent": 0.08104488649079948, "is_violation": false}, {"line_id": 9, "from_bus": 6, "to_bus": 13, "p_from_mw": 18.342851241765544, "q_from_mvar": 7.811919174553143, "loading_percent": 0.18820974019259323, "is_violation": false}, {"line_id": 10, "from_bus": 9, "to_bus": 10, "p_from_mw": 5.734923824507613, "q_from_mvar": 3.623036765642721, "loading_percent": 0.06481414877613781, "is_violation": false}, {"line_id": 11, "from_bus": 9, "to_bus": 14, "p_from_mw": 10.60046184273848, "q_from_mvar": 3.679903830594433, "loading_percent": 0.10721344605057394, "is_violation": false}, {"line_id": 12, "from_bus": 10, "to_bus": 11, "p_from_mw": -2.5120003168347544, "q_from_mvar": -1.7179983421702585, "loading_percent": 0.029205281590343128, "is_violation": false}, {"line_id": 13, "from_bus": 12, "to_bus": 13, "p_from_mw": 1.5994761566155657, "q_from_mvar": 0.8582267354957265, "loading_percent": 0.017391267986697958, "is_violation": false}, {"line_id": 14, "from_bus": 13, "to_bus": 14, "p_from_mw": 4.896470868265007, "q_from_mvar": 1.8492858179601348, "loading_percent": 0.050385439171255764, "is_violation": false}, {"line_id": 100000, "from_bus": 4, "to_bus": 7, "p_from_mw": 28.523700465519493, "q_from_mvar": -10.10898260663759, "loading_percent": 0.300505765773175, "is_violation": false}, {"line_id": 100001, "from_bus": 4, "to_bus": 9, "p_from_mw": 16.340150696738622, "q_from_mvar": -0.7313952789714213, "loading_percent": 0.16242198911066183, "is_violation": false}, {"line_id": 100002, "from_bus": 5, "to_bus": 6, "p_from_mw": 47.38532142930041, "q_from_mvar": 12.474657937783515, "loading_percent": 0.4857991876686397, "is_violation": false}, {"line_id": 100003, "from_bus": 7, "to_bus": 8, "p_from_mw": -2.3743265372036715e-14, "q_from_mvar": -16.900551902881787, "loading_percent": 0.16075139507685152, "is_violation": false}, {"line_id": 100004, "from_bus": 7, "to_bus": 9, "p_from_mw": 28.5237004650625, "q_from_mvar": 5.02125944012126, "loading_percent": 0.27547794656238844, "is_violation": false}], "total_generation_mw": 281.81906588035247, "total_load_mw": 267.14506682294615, "total_loss_mw": 14.673999063878352, "voltage_violations": [{"bus_id": 1, "vm_pu": 1.06, "va_deg": 0.0, "is_violation": true, "violation_type": "overvoltage"}, {"bus_id": 6, "vm_pu": 1.0700000000000003, "va_deg": -15.041552855129648, "is_violation": true, "violation_type": "overvoltage"}, {"bus_id": 7, "vm_pu": 1.0619668053396405, "va_deg": -13.872102258703361, "is_violation": true, "violation_type": "overvoltage"}, {"bus_id": 8, "vm_pu": 1.09, "va_deg": -13.872102258703361, "is_violation": true, "violation_type": "overvoltage"}, {"bus_id": 9, "vm_pu": 1.0571782523136979, "va_deg": -15.473717019212613, "is_violation": true, "violation_type": "overvoltage"}, {"bus_id": 10, "vm_pu": 1.0525625544598776, "va_deg": -15.663898427395994, "is_violation": true, "violation_type": "overvoltage"}, {"bus_id": 11, "vm_pu": 1.0576606781970888, "va_deg": -15.488129212827102, "is_violation": true, "violation_type": "overvoltage"}, {"bus_id": 12, "vm_pu": 1.0542732040088876, "va_deg": -15.92991860015958, "is_violation": true, "violation_type": "overvoltage"}], "thermal_violations": [], "summary_text": "", "solver_backend": "pandapower", "llm_prompt": null, "llm_response": null}

--- round 3 ---
[assistant]   (3542 in / 146 out tokens, 1.6 s)
The load at bus 6 has been successfully set to 14,700 kW, and the power flow has converged.

- **Total Load**: 267.15 MW
- **Total Generation**: 281.82 MW
- **Total Losses**: 14.67 MW
- **Voltage Range**: 1.06 to 1.09 p.u.

**Violations**: There are multiple overvoltage violations at buses 1, 6, 7, 8, 9, 10, 11, and 12.

**Suggested Next Step**: Consider running a contingency analysis or generating remedial action suggestions to address the overvoltage violations.

[final answer]
The load at bus 6 has been successfully set to 14,700 kW, and the power flow has converged.

- **Total Load**: 267.15 MW
- **Total Generation**: 281.82 MW
- **Total Losses**: 14.67 MW
- **Voltage Range**: 1.06 to 1.09 p.u.

**Violations**: There are multiple overvoltage violations at buses 1, 6, 7, 8, 9, 10, 11, and 12.

**Suggested Next Step**: Consider running a contingency analysis or generating remedial action suggestions to address the overvoltage violations.
